
**** 12/18/21 21:54:49 ****** PSpice 17.2.0 (March 2016) ****** ID# 0 ********

 ** Profile: "SCHEMATIC1-sim"  [ U:\CAPSTONE\capstone\hardware\simulations\emg-filter\CustomDesign\emg-filter-pspicefiles\schematic1\


 ****     CIRCUIT DESCRIPTION


******************************************************************************




** Creating circuit file "sim.cir" 
** WARNING: THIS AUTOMATICALLY GENERATED FILE MAY BE OVERWRITTEN BY SUBSEQUENT SIMULATIONS

*Libraries: 
* Profile Libraries :
* Local Libraries :
* From [PSPICE NETLIST] section of C:\Users\k_noory\cdssetup\OrCAD_PSpice\17.2.0\PSpice.ini file:
.lib "nom.lib" 

*Analysis directives: 
.TRAN  0 0.20 0.15 0.00001 
.OPTIONS ADVCONV
.PROBE64 V(alias(*)) I(alias(*)) W(alias(*)) D(alias(*)) NOISE(alias(*)) 
.INC "..\SCHEMATIC1.net" 



**** INCLUDING SCHEMATIC1.net ****
* source EMG-FILTER
E_U7         N32040 0 VALUE {LIMIT(V(0,N32032)*1E6,-15V,+15V)}
V_V1         MID_MUSCLE N31846  
+SIN 1.5m 3m 100 0 0 0
E_E1         N31846 0 VALUE { (RND-0.5)*3m }
V_V2         END_MUSCLE 0  
+SIN 0 10m 60 0 0 0
R_R17         N32032 N32040  261k TC=0,0 
C_C2         N32032 N32040  2n  TC=0,0 
C_C3         N321640 N32212  20n  TC=0,0 
R_R16         N321640 N32032  261k TC=0,0 
E_U16         N40091 0 VALUE {LIMIT(V(N40161,N40091)*1E6,-15V,+15V)}
R_R19         N39955 N32040  26`k TC=0,0 
--------------------------------$
ERROR(ORPSIM-16015): Unknown parameter.
R_R21         N39851 N40161  2k TC=0,0 
E_U15         N39851 0 VALUE {LIMIT(V(N39965,N39851)*1E6,-15V,+15V)}
C_C6         N40091 N39955  20n  TC=0,0 
R_R20         N40161 0  261k TC=0,0 
R_R38         N39955 N39965  261k TC=0,0 
R_R18         N40039 N40091  130k TC=0,0 
C_C5         N40039 N39965  10n  TC=0,0 
C_C4         N32040 N40039  10n  TC=0,0 
R_R54         N39851 N47095  10k TC=0,0 
E_U21         N47193 0 VALUE {LIMIT(V(0,N47041)*1E6,-15V,+15V)}
R_R52         N39851 N47041  10k TC=0,0 
R_R51         N47095 N47103  10k TC=0,0 
R_R50         N47041 N47049  10k TC=0,0 
D_D5         N47193 N47041 D1N4148_1 
E_U22         N47103 0 VALUE {LIMIT(V(0,N47095)*1E6,-15V,+15V)}
R_R53         N47049 N47095  5k TC=0,0 
D_D6         N47049 N47193 D1N4148_1 
R_R55         N48484 N48474  10k TC=0,0 
E_U23         N48474 0 VALUE {LIMIT(V(N47103,N48484)*1E6,-15V,+15V)}
R_R56         0 N48484  2k TC=0,0 
E_U24         N50140 0 VALUE {LIMIT(V(MID_MUSCLE,N49938)*1E6,-15V,+15V)}
R_R57         0 N49938  40k TC=0,0 
R_R58         N50140 N49938  10k TC=0,0 
R_R59         N50084 N50140  10k TC=0,0 
E_U25         N50116 0 VALUE {LIMIT(V(END_MUSCLE,N50084)*1E6,-15V,+15V)}
R_R60         N50084 N50116  40k TC=0,0 
E_U26         N32212 0 VALUE {LIMIT(V(N50116,N52349)*1E6,-15V,+15V)}
R_R61         N52349 0  10k TC=0,0 
R_R62         N32212 N52349  191k TC=0,0 
C_C8         N62613 N62555  10n  TC=0,0 
R_R64         N62545 N62555  266k TC=0,0 
R_R65         N62441 N62721  2k TC=0,0 
C_C9         N62651 N62545  20n  TC=0,0 
R_R67         N62721 0  266k TC=0,0 
E_U28         N62651 0 VALUE {LIMIT(V(N62721,N62651)*1E6,-15V,+15V)}
E_U27         N62441 0 VALUE {LIMIT(V(N62555,N62441)*1E6,-15V,+15V)}
R_R63         N62545 N62535  264k TC=0,0 
C_C7         N62535 N62613  10n  TC=0,0 
R_R66         N62613 N62651  133k TC=0,0 
V_V3         N62535 0 DC 0Vdc AC 1Vac 

**** RESUMING sim.cir ****
.END
