
**** 11/11/21 00:55:30 ****** PSpice 17.2.0 (March 2016) ****** ID# 0 ********

 ** Profile: "SCHEMATIC1-emg-amplifier"  [ U:\CAPSTONE\emg-amplifier-PSpiceFiles\SCHEMATIC1\emg-amplifier.sim ] 


 ****     CIRCUIT DESCRIPTION


******************************************************************************




** Creating circuit file "emg-amplifier.cir" 
** WARNING: THIS AUTOMATICALLY GENERATED FILE MAY BE OVERWRITTEN BY SUBSEQUENT SIMULATIONS

*Libraries: 
* Profile Libraries :
* Local Libraries :
* From [PSPICE NETLIST] section of C:\Users\k_noory\cdssetup\OrCAD_PSpice\17.2.0\PSpice.ini file:
.lib "nom.lib" 

*Analysis directives: 
.TRAN  0 1000ns 0 
.OPTIONS ADVCONV
.PROBE64 V(alias(*)) I(alias(*)) W(alias(*)) D(alias(*)) NOISE(alias(*)) 
.INC "..\SCHEMATIC1.net" 



**** INCLUDING SCHEMATIC1.net ****
* source EMG-AMPLIFIER
X_U1A         GND N00502 VCC -VCC N00519 TL082
V_V2         -VCC GND -15Vdc
V_V1         VCC GND 15Vdc
V_V3         N00498 GND DC 0Vdc AC 1Vac 
R_R1         N00502 N00519  1k TC=0,0 
R_R2         N00498 N00502  1k TC=0,0 

**** RESUMING emg-amplifier.cir ****
.END

**** 11/11/21 00:55:30 ****** PSpice 17.2.0 (March 2016) ****** ID# 0 ********

 ** Profile: "SCHEMATIC1-emg-amplifier"  [ U:\CAPSTONE\emg-amplifier-PSpiceFiles\SCHEMATIC1\emg-amplifier.sim ] 


 ****     Diode MODEL PARAMETERS


******************************************************************************




               X_U1A.dx        X_U1A.dy        
          IS  800.000000E-18  800.000000E-18 
          RS                    1.000000E-03 
         CJO                   10.000000E-12 


**** 11/11/21 00:55:30 ****** PSpice 17.2.0 (March 2016) ****** ID# 0 ********

 ** Profile: "SCHEMATIC1-emg-amplifier"  [ U:\CAPSTONE\emg-amplifier-PSpiceFiles\SCHEMATIC1\emg-amplifier.sim ] 


 ****     Junction FET MODEL PARAMETERS


******************************************************************************




               X_U1A.jx1       X_U1A.jx2       
               NJF             NJF             
         VTO   -1              -1            
        BETA  222.070000E-06  222.070000E-06 
          IS  100.000000E-12  100.000000E-12 


**** 11/11/21 00:55:30 ****** PSpice 17.2.0 (March 2016) ****** ID# 0 ********

 ** Profile: "SCHEMATIC1-emg-amplifier"  [ U:\CAPSTONE\emg-amplifier-PSpiceFiles\SCHEMATIC1\emg-amplifier.sim ] 


 ****     INITIAL TRANSIENT SOLUTION       TEMPERATURE =   27.000 DEG C


******************************************************************************



 NODE   VOLTAGE     NODE   VOLTAGE     NODE   VOLTAGE     NODE   VOLTAGE


(  GND)-2.438E+06  (  VCC)-2.438E+06  ( -VCC)-2.438E+06  (N00498)-2.438E+06     

(N00502)-2.438E+06 (N00519)-2.438E+06 (X_U1A.6)-792.4E-09                       

(X_U1A.7)-2.438E+06                   (X_U1A.8)-2.438E+06                       

(X_U1A.9)    0.0000                   (X_U1A.10)-2.438E+06                      

(X_U1A.11)-2.438E+06                  (X_U1A.12)-2.438E+06                      

(X_U1A.53)-2.438E+06                  (X_U1A.54)-2.438E+06                      

(X_U1A.90)-302.6E-06                  (X_U1A.91)   40.0000                      

(X_U1A.92)  -40.0000                  (X_U1A.99)-2.438E+06                  




    VOLTAGE SOURCE CURRENTS
    NAME         CURRENT

    V_V2         2.283E-02
    V_V1        -2.283E-02
    V_V3        -1.416E-08
    X_U1A.vb    -7.814E-12
    X_U1A.vc     1.269E-11
    X_U1A.ve     3.337E-07
    X_U1A.vlim  -3.026E-07
    X_U1A.vlp   -4.000E-11
    X_U1A.vln   -4.000E-11

    TOTAL POWER DISSIPATION   6.85E-01  WATTS


ERROR(ORPSIM-15138): Convergence problem in Transient Analysis at Time =  200.0E-12.
         Time step =  745.1E-21, minimum allowable step size =  1.000E-18

  These voltages failed to converge:

    V(X_U1A.6)                =   -2.390mV  \   289.78uV
    V(X_U1A.90)               =   634.58mV  \    97.05mV

  These supply currents failed to converge:

    I(X_U1A.egnd)             =   -1.386mA  \  -689.90uA
    I(V_V2)                   =    23.21mA  \    22.88mA
    I(V_V1)                   =   -23.21mA  \   -22.88mA
    I(V_V3)                   =   -6.320nA  \   -6.479nA
    I(X_U1A.vb)               =   -23.90nA  \    2.898nA
    I(X_U1A.vc)               =  -633.36uA  \   180.38uA
    I(X_U1A.ve)               =   378.21uA  \    56.50uA
    I(X_U1A.vlim)             =   634.58uA  \    97.05uA
    I(X_U1A.hlim)             =   -1.269pA  \  -194.09fA

  These devices failed to converge:
    X_U1A.dc  X_U1A.fb  



  Last node voltages tried were:

 NODE   VOLTAGE     NODE   VOLTAGE     NODE   VOLTAGE     NODE   VOLTAGE


(  GND)-2.438E+06  (  VCC)-2.438E+06  ( -VCC)-2.438E+06  (N00498)-2.438E+06     

(N00502)-2.438E+06 (N00519)-2.438E+06 (X_U1A.6)    -.0024                       

(X_U1A.7)-2.438E+06                   (X_U1A.8)-2.438E+06                       

(X_U1A.9)    0.0000                   (X_U1A.10)-2.438E+06                      

(X_U1A.11)-2.438E+06                  (X_U1A.12)-2.438E+06                      

(X_U1A.53)-2.438E+06                  (X_U1A.54)-2.438E+06                      

(X_U1A.90)     .6346                  (X_U1A.91)   40.0000                      

(X_U1A.92)  -40.0000                  (X_U1A.99)-2.438E+06                  


**** Interrupt ****
